1775260
  -OEChem-08082104283D

 44 47  0     0  0  0  0  0  0999 V2000
    2.3442   -2.3910    0.0625 O   0  0  0  0  0  0  0  0  0  0  0  0
   -2.3895   -3.1662   -0.4015 O   0  0  0  0  0  0  0  0  0  0  0  0
    4.5684   -2.0124    0.3077 O   0  0  0  0  0  0  0  0  0  0  0  0
    6.7544    2.5158   -1.5023 O   0  5  0  0  0  0  0  0  0  0  0  0
    6.7046    2.2819    0.7687 O   0  0  0  0  0  0  0  0  0  0  0  0
    0.7586   -0.5463    0.1698 C   0  0  0  0  0  0  0  0  0  0  0  0
    1.8922    0.3824    0.3768 C   0  0  0  0  0  0  0  0  0  0  0  0
   -1.6169   -1.0704   -0.0705 C   0  0  0  0  0  0  0  0  0  0  0  0
    3.1490   -0.1050    0.4525 C   0  0  0  0  0  0  0  0  0  0  0  0
    1.0231   -1.9073    0.0171 C   0  0  0  0  0  0  0  0  0  0  0  0
   -0.5877   -0.1266    0.1290 C   0  0  0  0  0  0  0  0  0  0  0  0
   -1.2725   -2.4074   -0.2203 C   0  0  0  0  0  0  0  0  0  0  0  0
   -3.0330   -1.0234   -0.1666 C   0  0  0  0  0  0  0  0  0  0  0  0
    4.3794    0.7228    0.7243 C   0  0  0  0  0  0  0  0  0  0  0  0
    0.0336   -2.8796   -0.1841 C   0  0  0  0  0  0  0  0  0  0  0  0
    3.4287   -1.5585    0.2761 C   0  0  0  0  0  0  0  0  0  0  0  0
   -3.9367    0.0851   -0.0858 C   0  0  0  0  0  0  0  0  0  0  0  0
    1.5625    1.8519    0.4761 C   0  0  0  0  0  0  0  0  0  0  0  0
   -3.4509   -2.3185   -0.3674 C   0  0  0  0  0  0  0  0  0  0  0  0
    5.0136    1.2483   -0.5527 C   0  0  0  0  0  0  0  0  0  0  0  0
   -4.4653    0.4705    1.1479 C   0  0  0  0  0  0  0  0  0  0  0  0
   -4.2916    0.7852   -1.2411 C   0  0  0  0  0  0  0  0  0  0  0  0
   -5.6973    2.2480    0.0708 C   0  0  0  0  0  0  0  0  0  0  0  0
   -5.3447    1.5504    1.2262 C   0  0  0  0  0  0  0  0  0  0  0  0
   -5.1708    1.8652   -1.1629 C   0  0  0  0  0  0  0  0  0  0  0  0
    6.2802    2.1010   -0.4053 C   0  0  0  0  0  0  0  0  0  0  0  0
   -6.6358    3.4038    0.1549 C   0  0  0  0  0  0  0  0  0  0  0  0
   -0.8621    0.9169    0.2501 H   0  0  0  0  0  0  0  0  0  0  0  0
    4.1410    1.5577    1.3943 H   0  0  0  0  0  0  0  0  0  0  0  0
    5.1157    0.1413    1.2941 H   0  0  0  0  0  0  0  0  0  0  0  0
    0.2682   -3.9307   -0.3010 H   0  0  0  0  0  0  0  0  0  0  0  0
    2.4429    2.4964    0.5292 H   0  0  0  0  0  0  0  0  0  0  0  0
    0.9644    2.0522    1.3717 H   0  0  0  0  0  0  0  0  0  0  0  0
    1.0041    2.1832   -0.4068 H   0  0  0  0  0  0  0  0  0  0  0  0
   -4.4176   -2.7841   -0.4986 H   0  0  0  0  0  0  0  0  0  0  0  0
    5.2754    0.4045   -1.2048 H   0  0  0  0  0  0  0  0  0  0  0  0
    4.2840    1.8562   -1.1037 H   0  0  0  0  0  0  0  0  0  0  0  0
   -4.2000   -0.0611    2.0589 H   0  0  0  0  0  0  0  0  0  0  0  0
   -3.8894    0.5013   -2.2109 H   0  0  0  0  0  0  0  0  0  0  0  0
   -5.7465    1.8404    2.1934 H   0  0  0  0  0  0  0  0  0  0  0  0
   -5.4360    2.4022   -2.0698 H   0  0  0  0  0  0  0  0  0  0  0  0
   -6.0769    4.3303    0.3197 H   0  0  0  0  0  0  0  0  0  0  0  0
   -7.2208    3.5058   -0.7655 H   0  0  0  0  0  0  0  0  0  0  0  0
   -7.3500    3.2741    0.9752 H   0  0  0  0  0  0  0  0  0  0  0  0
  1 10  1  0  0  0  0
  1 16  1  0  0  0  0
  2 12  1  0  0  0  0
  2 19  1  0  0  0  0
  3 16  2  0  0  0  0
  4 26  1  0  0  0  0
  5 26  2  0  0  0  0
  6  7  1  0  0  0  0
  6 10  1  0  0  0  0
  6 11  2  0  0  0  0
  7  9  2  0  0  0  0
  7 18  1  0  0  0  0
  8 11  1  0  0  0  0
  8 12  2  0  0  0  0
  8 13  1  0  0  0  0
  9 14  1  0  0  0  0
  9 16  1  0  0  0  0
 10 15  2  0  0  0  0
 11 28  1  0  0  0  0
 12 15  1  0  0  0  0
 13 17  1  0  0  0  0
 13 19  2  0  0  0  0
 14 20  1  0  0  0  0
 14 29  1  0  0  0  0
 14 30  1  0  0  0  0
 15 31  1  0  0  0  0
 17 21  2  0  0  0  0
 17 22  1  0  0  0  0
 18 32  1  0  0  0  0
 18 33  1  0  0  0  0
 18 34  1  0  0  0  0
 19 35  1  0  0  0  0
 20 26  1  0  0  0  0
 20 36  1  0  0  0  0
 20 37  1  0  0  0  0
 21 24  1  0  0  0  0
 21 38  1  0  0  0  0
 22 25  2  0  0  0  0
 22 39  1  0  0  0  0
 23 24  2  0  0  0  0
 23 25  1  0  0  0  0
 23 27  1  0  0  0  0
 24 40  1  0  0  0  0
 25 41  1  0  0  0  0
 27 42  1  0  0  0  0
 27 43  1  0  0  0  0
 27 44  1  0  0  0  0
M  CHG  1   4  -1
M  END
> <PUBCHEM_COMPOUND_CID>
1775260

> <PUBCHEM_CONFORMER_RMSD>
0.8

> <PUBCHEM_CONFORMER_DIVERSEORDER>
1
7
3
6
2
4
8
5

> <PUBCHEM_MMFF94_PARTIAL_CHARGES>
33
1 -0.23
10 0.08
11 -0.15
12 0.14
13 -0.05
14 0.14
15 -0.15
16 0.71
17 0.05
18 0.14
19 -0.01
2 -0.28
20 -0.11
21 -0.15
22 -0.15
23 -0.14
24 -0.15
25 -0.15
26 0.91
27 0.14
28 0.15
3 -0.57
31 0.15
35 0.15
38 0.15
39 0.15
4 -0.9
40 0.15
41 0.15
5 -0.9
6 0.03
7 -0.17
9 -0.12

> <PUBCHEM_EFFECTIVE_ROTOR_COUNT>
4

> <PUBCHEM_PHARMACOPHORE_FEATURES>
9
1 2 acceptor
1 3 acceptor
1 4 acceptor
1 5 acceptor
3 4 5 26 anion
5 2 8 12 13 19 rings
6 1 6 7 9 10 16 rings
6 17 21 22 23 24 25 rings
6 6 8 10 11 12 15 rings

> <PUBCHEM_HEAVY_ATOM_COUNT>
27

> <PUBCHEM_ATOM_DEF_STEREO_COUNT>
0

> <PUBCHEM_ATOM_UDEF_STEREO_COUNT>
0

> <PUBCHEM_BOND_DEF_STEREO_COUNT>
0

> <PUBCHEM_BOND_UDEF_STEREO_COUNT>
0

> <PUBCHEM_ISOTOPIC_ATOM_COUNT>
0

> <PUBCHEM_COMPONENT_COUNT>
1

> <PUBCHEM_CACTVS_TAUTO_COUNT>
1

> <PUBCHEM_CONFORMER_ID>
001B169C00000001

> <PUBCHEM_MMFF94_ENERGY>
72.8352

> <PUBCHEM_FEATURE_SELFOVERLAP>
45.855

> <PUBCHEM_SHAPE_FINGERPRINT>
10 15 18186524315201548105
10050765 1 18411136943811852006
10411042 1 16971956187461320215
10554248 39 18339629045652871318
10675989 125 18267023864938581994
10906281 52 18059304175189395755
11273773 38 18409731742334614541
11475781 23 18130792296079001068
11578821 258 17904763629564196788
12107183 9 18265041432336223026
12390115 104 18341337776742505539
12422481 6 17385715911737140972
12788726 201 17560527196274905657
13073987 5 18335419105650616306
13540713 4 18340505390970454735
13540713 5 18338496595763282643
13544653 18 9511166478865066787
13690498 29 17701254978109763103
13944108 23 17909833132783781593
14118638 360 18336540620437976019
14211702 104 9150909286195273104
14251764 75 18409730638474602729
14765038 42 18201452345928226489
14790565 3 18196376922601959929
14931854 50 17846778473535997977
15064981 113 16557904494758263829
15196674 1 18411696603983497642
1601671 61 18409163351052689728
18608769 82 18195249038737056139
20691028 202 18411418371833838905
21033648 144 18335127679750970303
21033648 29 17314223372613740621
21279426 13 18272660047684630910
21304253 335 18261396663190669806
21421861 104 17896303745879046522
23559900 14 18130784504576166510
23569914 152 17127630674270049556
270888 7 18410854335274303473
2748736 6 18411408505992980896
283562 15 18264479750142367747
335352 9 18268989791476435734
350125 39 18340768243337682899
4058900 60 18187079598776048138
474 4 18127969699332479819
5104073 3 18187359935090495178
57724786 102 18334574594683397103
6058803 2 18265310924433928778
6327066 14 18409725132907038085
6328613 192 18412546500759701208
636775 72 18051409867151507856
7808743 9 18409163341887501977

> <PUBCHEM_SHAPE_MULTIPOLES>
526.3
16.68
3.87
0.99
7.13
0.44
0.08
-19.69
1.05
-0.67
0.45
-0.3
-0.48
-1.08

> <PUBCHEM_SHAPE_SELFOVERLAP>
1168.823

> <PUBCHEM_SHAPE_VOLUME>
282.6

> <PUBCHEM_COORDINATE_TYPE>
2
5
10

$$$$
