6955009
  -OEChem-08082105103D

 45 46  0     1  0  0  0  0  0999 V2000
    0.0828    1.4406    1.0161 O   0  0  0  0  0  0  0  0  0  0  0  0
   -3.8570   -1.2480    1.1271 O   0  0  0  0  0  0  0  0  0  0  0  0
    1.9964   -0.2980    1.6833 O   0  0  0  0  0  0  0  0  0  0  0  0
    5.5045   -2.5167   -1.0210 O   0  5  0  0  0  0  0  0  0  0  0  0
    3.3072   -2.1594   -1.5115 O   0  0  0  0  0  0  0  0  0  0  0  0
   -5.7390   -2.5452    1.1933 O   0  0  0  0  0  0  0  0  0  0  0  0
    3.2701    0.1645   -0.2008 N   0  0  0  0  0  0  0  0  0  0  0  0
    5.6840   -0.0026    0.3062 C   0  0  0  0  0  0  0  0  0  0  0  0
    4.3481   -0.7500    0.0937 C   0  0  2  0  0  0  0  0  0  0  0  0
    6.2362    0.6054   -0.9881 C   0  0  0  0  0  0  0  0  0  0  0  0
    5.5532    1.0889    1.3750 C   0  0  0  0  0  0  0  0  0  0  0  0
    1.1866    1.3529    0.1159 C   0  0  2  0  0  0  0  0  0  0  0  0
    2.1717    0.3136    0.6316 C   0  0  0  0  0  0  0  0  0  0  0  0
    4.3980   -1.9168   -0.9180 C   0  0  0  0  0  0  0  0  0  0  0  0
    1.8350    2.7250    0.0233 C   0  0  0  0  0  0  0  0  0  0  0  0
   -1.1484    1.1463    0.5174 C   0  0  0  0  0  0  0  0  0  0  0  0
   -3.6994    0.5451   -0.5243 C   0  0  0  0  0  0  0  0  0  0  0  0
   -3.1523   -0.1811    0.5344 C   0  0  0  0  0  0  0  0  0  0  0  0
   -1.8913    0.1038    1.0613 C   0  0  0  0  0  0  0  0  0  0  0  0
   -5.0339    0.1759   -1.0155 C   0  0  0  0  0  0  0  0  0  0  0  0
   -1.6695    1.8892   -0.5407 C   0  0  0  0  0  0  0  0  0  0  0  0
   -2.9352    1.5914   -1.0582 C   0  0  0  0  0  0  0  0  0  0  0  0
   -5.6810   -0.8432   -0.4328 C   0  0  0  0  0  0  0  0  0  0  0  0
   -5.6497    0.9373   -2.1527 C   0  0  0  0  0  0  0  0  0  0  0  0
   -5.1173   -1.6187    0.6850 C   0  0  0  0  0  0  0  0  0  0  0  0
    6.4264   -0.7269    0.6669 H   0  0  0  0  0  0  0  0  0  0  0  0
    4.1157   -1.2466    1.0461 H   0  0  0  0  0  0  0  0  0  0  0  0
    3.3019    0.6671   -1.0825 H   0  0  0  0  0  0  0  0  0  0  0  0
    7.1984    1.0944   -0.8002 H   0  0  0  0  0  0  0  0  0  0  0  0
    5.5567    1.3594   -1.3990 H   0  0  0  0  0  0  0  0  0  0  0  0
    6.4029   -0.1537   -1.7575 H   0  0  0  0  0  0  0  0  0  0  0  0
    6.5347    1.5182    1.6043 H   0  0  0  0  0  0  0  0  0  0  0  0
    5.1465    0.6774    2.3047 H   0  0  0  0  0  0  0  0  0  0  0  0
    4.9043    1.9080    1.0481 H   0  0  0  0  0  0  0  0  0  0  0  0
    0.8691    1.0282   -0.8846 H   0  0  0  0  0  0  0  0  0  0  0  0
    2.6450    2.7529   -0.7116 H   0  0  0  0  0  0  0  0  0  0  0  0
    2.2502    3.0235    0.9930 H   0  0  0  0  0  0  0  0  0  0  0  0
    1.0995    3.4878   -0.2518 H   0  0  0  0  0  0  0  0  0  0  0  0
   -1.4939   -0.4814    1.8859 H   0  0  0  0  0  0  0  0  0  0  0  0
   -1.1083    2.7130   -0.9730 H   0  0  0  0  0  0  0  0  0  0  0  0
   -3.3039    2.1970   -1.8821 H   0  0  0  0  0  0  0  0  0  0  0  0
   -6.6686   -1.1433   -0.7702 H   0  0  0  0  0  0  0  0  0  0  0  0
   -5.0298    0.8616   -3.0526 H   0  0  0  0  0  0  0  0  0  0  0  0
   -5.7708    1.9944   -1.8929 H   0  0  0  0  0  0  0  0  0  0  0  0
   -6.6426    0.5530   -2.4117 H   0  0  0  0  0  0  0  0  0  0  0  0
  1 12  1  0  0  0  0
  1 16  1  0  0  0  0
  2 18  1  0  0  0  0
  2 25  1  0  0  0  0
  3 13  2  0  0  0  0
  4 14  1  0  0  0  0
  5 14  2  0  0  0  0
  6 25  2  0  0  0  0
  7  9  1  0  0  0  0
  7 13  1  0  0  0  0
  7 28  1  0  0  0  0
  8  9  1  0  0  0  0
  8 10  1  0  0  0  0
  8 11  1  0  0  0  0
  8 26  1  0  0  0  0
  9 14  1  0  0  0  0
  9 27  1  0  0  0  0
 10 29  1  0  0  0  0
 10 30  1  0  0  0  0
 10 31  1  0  0  0  0
 11 32  1  0  0  0  0
 11 33  1  0  0  0  0
 11 34  1  0  0  0  0
 12 13  1  0  0  0  0
 12 15  1  0  0  0  0
 12 35  1  0  0  0  0
 15 36  1  0  0  0  0
 15 37  1  0  0  0  0
 15 38  1  0  0  0  0
 16 19  2  0  0  0  0
 16 21  1  0  0  0  0
 17 18  2  0  0  0  0
 17 20  1  0  0  0  0
 17 22  1  0  0  0  0
 18 19  1  0  0  0  0
 19 39  1  0  0  0  0
 20 23  2  0  0  0  0
 20 24  1  0  0  0  0
 21 22  2  0  0  0  0
 21 40  1  0  0  0  0
 22 41  1  0  0  0  0
 23 25  1  0  0  0  0
 23 42  1  0  0  0  0
 24 43  1  0  0  0  0
 24 44  1  0  0  0  0
 24 45  1  0  0  0  0
M  CHG  1   4  -1
M  END
> <PUBCHEM_COMPOUND_CID>
6955009

> <PUBCHEM_CONFORMER_RMSD>
0.8

> <PUBCHEM_CONFORMER_DIVERSEORDER>
3
354
207
151
182
227
236
330
331
101
320
155
187
260
318
115
179
301
78
102
281
199
167
256
110
250
223
143
244
321
316
348
194
52
171
196
90
352
295
303
336
279
346
108
294
335
33
60
181
263
284
262
89
1
40
270
282
220
217
126
176
293
71
130
280
258
216
351
191
65
69
200
165
21
319
29
121
195
224
72
212
6
289
215
311
323
67
166
202
43
141
313
225
30
92
254
322
210
70
86
355
177
201
168
47
290
342
150
265
307
164
273
278
324
226
222
38
148
315
132
248
24
146
347
334
356
138
98
285
169
137
7
314
116
59
291
9
10
353
267
213
204
140
297
271
170
268
48
136
93
300
149
326
82
188
14
12
292
32
174
81
338
94
20
305
39
286
5
51
274
190
198
209
189
237
183
87
73
228
341
144
74
79
153
255
193
123
119
304
218
287
28
235
241
58
156
277
283
80
13
111
175
243
173
50
276
120
88
22
34
197
114
232
64
91
219
97
184
317
259
27
249
2
272
203
296
309
333
344
349
44
345
109
162
31
99
129
337
26
306
231
325
266
104
159
117
327
127
251
84
49
214
145
57
308
157
180
211
77
310
75
329
16
68
95
161
339
206
208
253
4
61
242
17
246
328
96
299
66
247
36
54
252
240
288
112
238
41
229
42
122
192
62
134
37
233
133
107
298
230
56
269
186
343
160
106
302
142
264
45
83
25
257
125
63
46
245
100
8
158
131
55
275
239
312
113
163
19
128
118
261
332
205
53
18
135
178
340
154
185
76
11
172
147
15
23
234
105
350
221
85
35
152
124
103
139

> <PUBCHEM_MMFF94_PARTIAL_CHARGES>
26
1 -0.36
12 0.34
13 0.57
14 0.91
16 0.08
17 0.03
18 0.08
19 -0.15
2 -0.23
20 -0.17
21 -0.15
22 -0.15
23 -0.14
24 0.14
25 0.71
28 0.37
3 -0.57
39 0.15
4 -0.9
40 0.15
41 0.15
42 0.15
5 -0.9
6 -0.57
7 -0.73
9 0.19

> <PUBCHEM_EFFECTIVE_ROTOR_COUNT>
7

> <PUBCHEM_PHARMACOPHORE_FEATURES>
10
1 1 acceptor
1 3 acceptor
1 4 acceptor
1 5 acceptor
1 6 acceptor
1 7 donor
3 4 5 14 anion
3 8 10 11 hydrophobe
6 16 17 18 19 21 22 rings
6 2 17 18 20 23 25 rings

> <PUBCHEM_HEAVY_ATOM_COUNT>
25

> <PUBCHEM_ATOM_DEF_STEREO_COUNT>
2

> <PUBCHEM_ATOM_UDEF_STEREO_COUNT>
0

> <PUBCHEM_BOND_DEF_STEREO_COUNT>
0

> <PUBCHEM_BOND_UDEF_STEREO_COUNT>
0

> <PUBCHEM_ISOTOPIC_ATOM_COUNT>
0

> <PUBCHEM_COMPONENT_COUNT>
1

> <PUBCHEM_CACTVS_TAUTO_COUNT>
2

> <PUBCHEM_CONFORMER_ID>
006A200100000003

> <PUBCHEM_MMFF94_ENERGY>
71.2429

> <PUBCHEM_FEATURE_SELFOVERLAP>
50.837

> <PUBCHEM_SHAPE_FINGERPRINT>
11089746 13 10881398763972048184
11135609 149 13625179368016726450
11796584 16 18260541217300583355
12236239 1 15791723096701485521
12596602 18 15195279850224014970
12633257 1 14620789409793322265
13103583 49 15769774667331299335
13402501 40 18413394241104301511
13533116 47 17561357396689707352
13544653 18 18059858320718745480
13685833 64 18343023315462396883
13955234 65 17916018156484082112
14251751 18 18334861640512460511
146900 427 16558741352461655936
14840074 17 17346878961804494052
15183329 4 17385718093290239757
15537594 2 17489303092607122086
17844677 252 17632294562614857496
17870717 6 18187364303609661655
19377110 9 16630518519442334298
193927 3 18343305846642417977
20281389 69 9295285049408696630
20645477 70 18409730707046451529
21033650 10 17314519110876465852
21267235 1 17822292444638390827
21623969 137 18131070433217055478
22393880 68 18040146336327049025
23198884 109 15502370141195632025
23522609 53 15409782555790025840
23559900 14 18260818333023359485
239999 70 18334851762377888720
2838139 119 13623525753519759431
3004659 81 18040716991578782988
314194 84 17846212267616921188
34797466 226 18114188540268725772
351380 3 16200429165527198308
46194498 28 18261110811642869148
5104073 3 17988082171734766850

> <PUBCHEM_SHAPE_MULTIPOLES>
474.29
17.08
2.42
1.5
3.92
0.57
0.22
7.08
3.61
0.35
0.3
-0.41
0.2
3.12

> <PUBCHEM_SHAPE_SELFOVERLAP>
994.101

> <PUBCHEM_SHAPE_VOLUME>
267.1

> <PUBCHEM_COORDINATE_TYPE>
2
5
10

$$$$
