1753100
  -OEChem-08082105203D

 57 60  0     1  0  0  0  0  0999 V2000
    5.4943    0.8990   -0.8102 O   0  0  0  0  0  0  0  0  0  0  0  0
    0.9481    2.3944   -0.2313 O   0  0  0  0  0  0  0  0  0  0  0  0
   -1.1903    3.0951    0.0625 O   0  0  0  0  0  0  0  0  0  0  0  0
   -4.8720    0.3959    1.8187 O   0  0  0  0  0  0  0  0  0  0  0  0
   -7.0698   -1.7390   -2.2255 O   0  5  0  0  0  0  0  0  0  0  0  0
   -7.5555   -2.8254   -0.2772 O   0  0  0  0  0  0  0  0  0  0  0  0
   -5.3031   -0.3828   -0.3261 N   0  0  0  0  0  0  0  0  0  0  0  0
    5.2038   -1.1586    0.0799 C   0  0  0  0  0  0  0  0  0  0  0  0
    5.6211   -2.5138    0.5265 C   0  0  0  0  0  0  0  0  0  0  0  0
    6.0896   -0.2734   -0.4918 C   0  0  0  0  0  0  0  0  0  0  0  0
    6.9802   -2.9022   -0.0964 C   0  0  0  0  0  0  0  0  0  0  0  0
    7.5196   -0.4921   -0.7953 C   0  0  0  0  0  0  0  0  0  0  0  0
    8.0058   -1.7488   -0.0446 C   0  0  0  0  0  0  0  0  0  0  0  0
    3.9576   -0.4831    0.1293 C   0  0  0  0  0  0  0  0  0  0  0  0
    4.1887    0.7729   -0.4278 C   0  0  0  0  0  0  0  0  0  0  0  0
    3.2090    1.7490   -0.5631 C   0  0  0  0  0  0  0  0  0  0  0  0
    2.6578   -0.7895    0.5847 C   0  0  0  0  0  0  0  0  0  0  0  0
    1.6229    0.1614    0.4661 C   0  0  0  0  0  0  0  0  0  0  0  0
    1.9339    1.3983   -0.0981 C   0  0  0  0  0  0  0  0  0  0  0  0
    0.2362   -0.0880    0.9193 C   0  0  0  0  0  0  0  0  0  0  0  0
   -0.6865    0.8922    0.8153 C   0  0  0  0  0  0  0  0  0  0  0  0
    3.4851    3.0845   -1.1649 C   0  0  0  0  0  0  0  0  0  0  0  0
   -2.1111    0.7897    1.2982 C   0  0  0  0  0  0  0  0  0  0  0  0
   -0.3537    2.2076    0.1988 C   0  0  0  0  0  0  0  0  0  0  0  0
   -0.0675   -1.4617    1.4659 C   0  0  0  0  0  0  0  0  0  0  0  0
   -3.0487    0.2504    0.2279 C   0  0  0  0  0  0  0  0  0  0  0  0
   -4.4927    0.1119    0.6858 C   0  0  0  0  0  0  0  0  0  0  0  0
   -6.7164   -0.6217   -0.1465 C   0  0  1  0  0  0  0  0  0  0  0  0
   -7.5252    0.6412   -0.4617 C   0  0  0  0  0  0  0  0  0  0  0  0
   -9.0077    0.4829   -0.1478 C   0  0  0  0  0  0  0  0  0  0  0  0
   -7.1532   -1.8462   -0.9707 C   0  0  0  0  0  0  0  0  0  0  0  0
    4.8663   -3.2603    0.2562 H   0  0  0  0  0  0  0  0  0  0  0  0
    5.7104   -2.5144    1.6195 H   0  0  0  0  0  0  0  0  0  0  0  0
    6.8294   -3.1922   -1.1444 H   0  0  0  0  0  0  0  0  0  0  0  0
    7.3803   -3.7799    0.4236 H   0  0  0  0  0  0  0  0  0  0  0  0
    8.1222    0.3748   -0.5058 H   0  0  0  0  0  0  0  0  0  0  0  0
    7.6394   -0.6401   -1.8746 H   0  0  0  0  0  0  0  0  0  0  0  0
    8.1928   -1.4934    1.0067 H   0  0  0  0  0  0  0  0  0  0  0  0
    8.9615   -2.0787   -0.4669 H   0  0  0  0  0  0  0  0  0  0  0  0
    2.4852   -1.7679    1.0229 H   0  0  0  0  0  0  0  0  0  0  0  0
    4.5304    3.1857   -1.4737 H   0  0  0  0  0  0  0  0  0  0  0  0
    2.8622    3.2382   -2.0521 H   0  0  0  0  0  0  0  0  0  0  0  0
    3.2763    3.8788   -0.4407 H   0  0  0  0  0  0  0  0  0  0  0  0
   -2.4710    1.7655    1.6498 H   0  0  0  0  0  0  0  0  0  0  0  0
   -2.1680    0.1619    2.1958 H   0  0  0  0  0  0  0  0  0  0  0  0
    0.4868   -1.6376    2.3942 H   0  0  0  0  0  0  0  0  0  0  0  0
   -1.1250   -1.6202    1.6902 H   0  0  0  0  0  0  0  0  0  0  0  0
    0.2012   -2.2356    0.7380 H   0  0  0  0  0  0  0  0  0  0  0  0
   -3.0396    0.9131   -0.6467 H   0  0  0  0  0  0  0  0  0  0  0  0
   -2.7113   -0.7382   -0.1082 H   0  0  0  0  0  0  0  0  0  0  0  0
   -6.8716   -0.8598    0.9146 H   0  0  0  0  0  0  0  0  0  0  0  0
   -4.8998   -0.5583   -1.2421 H   0  0  0  0  0  0  0  0  0  0  0  0
   -7.1334    1.4856    0.1190 H   0  0  0  0  0  0  0  0  0  0  0  0
   -7.4097    0.9127   -1.5183 H   0  0  0  0  0  0  0  0  0  0  0  0
   -9.4679   -0.2918   -0.7685 H   0  0  0  0  0  0  0  0  0  0  0  0
   -9.1595    0.2194    0.9037 H   0  0  0  0  0  0  0  0  0  0  0  0
   -9.5348    1.4227   -0.3408 H   0  0  0  0  0  0  0  0  0  0  0  0
  1 10  1  0  0  0  0
  1 15  1  0  0  0  0
  2 19  1  0  0  0  0
  2 24  1  0  0  0  0
  3 24  2  0  0  0  0
  4 27  2  0  0  0  0
  5 31  1  0  0  0  0
  6 31  2  0  0  0  0
  7 27  1  0  0  0  0
  7 28  1  0  0  0  0
  7 52  1  0  0  0  0
  8  9  1  0  0  0  0
  8 10  2  0  0  0  0
  8 14  1  0  0  0  0
  9 11  1  0  0  0  0
  9 32  1  0  0  0  0
  9 33  1  0  0  0  0
 10 12  1  0  0  0  0
 11 13  1  0  0  0  0
 11 34  1  0  0  0  0
 11 35  1  0  0  0  0
 12 13  1  0  0  0  0
 12 36  1  0  0  0  0
 12 37  1  0  0  0  0
 13 38  1  0  0  0  0
 13 39  1  0  0  0  0
 14 15  2  0  0  0  0
 14 17  1  0  0  0  0
 15 16  1  0  0  0  0
 16 19  2  0  0  0  0
 16 22  1  0  0  0  0
 17 18  2  0  0  0  0
 17 40  1  0  0  0  0
 18 19  1  0  0  0  0
 18 20  1  0  0  0  0
 20 21  2  0  0  0  0
 20 25  1  0  0  0  0
 21 23  1  0  0  0  0
 21 24  1  0  0  0  0
 22 41  1  0  0  0  0
 22 42  1  0  0  0  0
 22 43  1  0  0  0  0
 23 26  1  0  0  0  0
 23 44  1  0  0  0  0
 23 45  1  0  0  0  0
 25 46  1  0  0  0  0
 25 47  1  0  0  0  0
 25 48  1  0  0  0  0
 26 27  1  0  0  0  0
 26 49  1  0  0  0  0
 26 50  1  0  0  0  0
 28 29  1  0  0  0  0
 28 31  1  0  0  0  0
 28 51  1  0  0  0  0
 29 30  1  0  0  0  0
 29 53  1  0  0  0  0
 29 54  1  0  0  0  0
 30 55  1  0  0  0  0
 30 56  1  0  0  0  0
 30 57  1  0  0  0  0
M  CHG  1   5  -1
M  END
> <PUBCHEM_COMPOUND_CID>
1753100

> <PUBCHEM_CONFORMER_RMSD>
1

> <PUBCHEM_CONFORMER_DIVERSEORDER>
1
14
40
43
31
16
39
25
11
24
32
2
37
5
10
13
28
23
19
26
38
12
7
20
21
34
35
36
3
42
8
6
41
29
18
15
4
22
27
17
9
30
33

> <PUBCHEM_MMFF94_PARTIAL_CHARGES>
28
1 -0.28
10 -0.04
12 0.18
15 0.14
16 -0.14
17 -0.15
18 0.03
19 0.08
2 -0.23
20 -0.17
21 -0.12
22 0.14
23 0.14
24 0.71
25 0.14
26 0.06
27 0.57
28 0.19
3 -0.57
31 0.91
4 -0.57
40 0.15
5 -0.9
52 0.37
6 -0.9
7 -0.73
8 -0.18
9 0.18

> <PUBCHEM_EFFECTIVE_ROTOR_COUNT>
7.8

> <PUBCHEM_PHARMACOPHORE_FEATURES>
12
1 1 acceptor
1 3 acceptor
1 30 hydrophobe
1 4 acceptor
1 5 acceptor
1 6 acceptor
1 7 donor
3 5 6 31 anion
5 1 8 10 14 15 rings
6 14 15 16 17 18 19 rings
6 2 18 19 20 21 24 rings
6 8 9 10 11 12 13 rings

> <PUBCHEM_HEAVY_ATOM_COUNT>
31

> <PUBCHEM_ATOM_DEF_STEREO_COUNT>
1

> <PUBCHEM_ATOM_UDEF_STEREO_COUNT>
0

> <PUBCHEM_BOND_DEF_STEREO_COUNT>
0

> <PUBCHEM_BOND_UDEF_STEREO_COUNT>
0

> <PUBCHEM_ISOTOPIC_ATOM_COUNT>
0

> <PUBCHEM_COMPONENT_COUNT>
1

> <PUBCHEM_CACTVS_TAUTO_COUNT>
2

> <PUBCHEM_CONFORMER_ID>
001AC00C00000001

> <PUBCHEM_MMFF94_ENERGY>
63.0876

> <PUBCHEM_FEATURE_SELFOVERLAP>
61.174

> <PUBCHEM_SHAPE_FINGERPRINT>
10 15 12463565171218977744
10299344 5 18342459236154226523
106641 1 11023819579313475269
10693767 8 18335415734465311954
11386260 185 17386007325131070324
12166972 35 18341900671558042152
12236239 1 18273220789334025553
12838862 33 18040150752323608128
13008946 170 18267865171987266460
13533116 47 18410580595977032160
13540713 4 17387994198329381968
13862211 1 18411985745444546730
14068700 675 18272373048947954960
14931854 50 17749104465740409035
15183329 4 18259987063065891426
15198563 99 17168425944010057844
15320294 125 17632572782311586077
16126227 98 8718536216864662357
18603816 31 17346303930930930887
19301676 85 18261397715121307618
20028762 73 18342740685145427374
20105231 36 18260837034244578611
21130935 74 17986675871094736058
21315759 40 18130793351712092883
21521239 73 18335419088359633098
21792961 116 17458632172737528921
221357 26 18113335297612732764
22224240 67 11527945651716107885
22956985 138 17199973067410352342
23522609 53 18055949612258388360
23559900 14 18187937226540954784
23569943 247 18195811756746686050
23576562 1 17096378408817184679
249057 25 18201453470692810353
3004659 81 18260545636590075769
335352 9 18260556610774640868
3504750 166 18056487140347077672
3633792 109 18114185237354816584
3711267 37 12540701400786680790
406291 66 18060132198288946895
4169191 19 8935008053667964163
4756088 132 17254552704365585074
484989 97 17969233393870763011
5283156 175 18343866593599233619
54039377 194 18341894086597509391
5718773 13 18413107243047054870
5758199 1 9295285040998239913
58902169 19 18411136961708399453
59682541 35 12247672782077128879
5969126 39 18336826399188312125
96874 4 18272083898700967319

> <PUBCHEM_SHAPE_MULTIPOLES>
597.77
26.07
2.93
1.19
31.22
0.41
0.04
-18.11
8.8
-2.03
0.63
1.37
-0.2
-2.28

> <PUBCHEM_SHAPE_SELFOVERLAP>
1291.078

> <PUBCHEM_SHAPE_VOLUME>
329.4

> <PUBCHEM_COORDINATE_TYPE>
2
5
10

$$$$
